*SPEF "IEEE 1481-1998"
*DESIGN "fifo"
*DATE "Thu Apr  7 04:22:15 2022"
*VENDOR "Cadence Design Systems, Inc."
*PROGRAM "Innovus"
*VERSION "16.26-s040_1"
*DESIGN_FLOW "COUPLING C" "PIN_CAP NONE" "NAME_SCOPE LOCAL"
*DIVIDER /
*DELIMITER :
*BUS_DELIMITER []
*T_UNIT 1 NS
*C_UNIT 1 PF
*R_UNIT 1 OHM
*L_UNIT 1 HENRY

// MMMC spef file for corner 'Default_rc_corner'

*NAME_MAP

*1 CTS_7
*2 CTS_8
*3 rclk
*4 FE_PHN3_wrst_n
*5 FE_PHN2_rrst_n
*6 FE_PHN6_wdata_7
*7 FE_PHN7_wdata_2
*8 FE_PHN5_wdata_6
*9 FE_PHN4_wdata_1
*10 FE_PHN8_wdata_5
*11 FE_PHN11_wdata_0
*12 FE_PHN9_wdata_4
*13 FE_PHN10_wdata_3
*14 n_122
*15 n_121
*16 n_110
*17 n_102
*18 n_71
*19 n_119
*20 n_123
*21 n_72
*22 n_138
*23 n_92
*24 n_124
*25 n_118
*26 n_147
*27 n_161
*28 n_58
*29 n_162
*30 n_113
*31 n_156
*32 n_107
*33 n_54
*34 n_159
*35 n_109
*36 n_106
*37 n_99
*38 n_75
*39 n_143
*40 n_94
*41 FE_OFN1_n_194
*42 n_145
*43 n_108
*44 n_136
*45 n_88
*46 waddr[1]
*47 waddr[2]
*48 wdata[4]
*49 wdata[3]
*50 raddr[0]
*51 n_11
*52 n_10
*53 n_80
*54 n_104
*55 n_12
*56 n_105
*57 n_19
*58 n_28
*59 n_65
*60 raddr[1]
*61 n_125
*62 n_135
*63 n_120
*64 raddr[3]
*65 n_103
*66 n_149
*67 n_5
*68 n_7
*69 n_6
*70 n_15
*71 n_8
*72 n_29
*73 raddr[2]
*74 n_192
*75 n_9
*76 n_167
*77 n_169
*78 wdata[0]
*79 rptr[4]
*80 n_175
*81 n_172
*82 n_170
*83 n_13
*84 n_173
*85 FE_PHN12_wdata_0
*86 n_4
*87 n_17
*88 n_178
*89 n_78
*90 n_97
*91 waddr[0]
*92 waddr[3]
*93 n_25
*94 n_180
*95 n_84
*96 rempty
*97 wclk
*98 wdata[5]
*99 wptr[4]
*100 wfull
*101 fifomem_mem\[5\][7]
*102 fifomem_mem\[15\][5]
*103 fifomem_mem\[3\][5]
*104 fifomem_mem\[4\][5]
*105 fifomem_mem\[14\][2]
*106 fifomem_mem\[5\][4]
*107 fifomem_mem\[0\][3]
*108 fifomem_mem\[4\][7]
*109 fifomem_mem\[6\][3]
*110 fifomem_mem\[12\][5]
*111 fifomem_mem\[0\][4]
*112 fifomem_mem\[10\][5]
*113 fifomem_mem\[0\][2]
*114 fifomem_mem\[13\][4]
*115 fifomem_mem\[10\][0]
*116 fifomem_mem\[7\][0]
*117 fifomem_mem\[14\][5]
*118 fifomem_mem\[1\][0]
*119 fifomem_mem\[3\][1]
*120 fifomem_mem\[12\][0]
*121 fifomem_mem\[4\][3]
*122 fifomem_mem\[14\][6]
*123 fifomem_mem\[10\][4]
*124 fifomem_mem\[5\][2]
*125 fifomem_mem\[6\][5]
*126 fifomem_mem\[13\][2]
*127 fifomem_mem\[10\][1]
*128 fifomem_mem\[0\][6]
*129 fifomem_mem\[13\][1]
*130 rq2_wptr[4]
*131 fifomem_mem\[12\][1]
*132 fifomem_mem\[2\][3]
*133 fifomem_mem\[1\][1]
*134 fifomem_mem\[5\][6]
*135 fifomem_mem\[12\][4]
*136 fifomem_mem\[15\][6]
*137 fifomem_mem\[11\][2]
*138 fifomem_mem\[8\][4]
*139 fifomem_mem\[1\][2]
*140 fifomem_mem\[13\][7]
*141 fifomem_mem\[5\][5]
*142 fifomem_mem\[14\][1]
*143 fifomem_mem\[6\][6]
*144 fifomem_mem\[9\][4]
*145 fifomem_mem\[8\][3]
*146 fifomem_mem\[15\][3]
*147 fifomem_mem\[9\][2]
*148 fifomem_mem\[6\][2]
*149 fifomem_mem\[13\][6]
*150 fifomem_mem\[14\][4]
*151 fifomem_mem\[11\][1]
*152 fifomem_mem\[15\][7]
*153 fifomem_mem\[4\][1]
*154 fifomem_mem\[6\][0]
*155 fifomem_mem\[4\][6]
*156 fifomem_mem\[9\][7]
*157 fifomem_mem\[14\][3]
*158 fifomem_mem\[7\][5]
*159 fifomem_mem\[9\][0]
*160 fifomem_mem\[13\][5]
*161 fifomem_mem\[11\][3]
*162 fifomem_mem\[0\][1]
*163 fifomem_mem\[4\][2]
*164 fifomem_mem\[10\][3]
*165 fifomem_mem\[9\][6]
*166 fifomem_mem\[2\][6]
*167 fifomem_mem\[12\][2]
*168 fifomem_mem\[8\][5]
*169 fifomem_mem\[9\][5]
*170 fifomem_mem\[3\][2]
*171 fifomem_mem\[15\][0]
*172 fifomem_mem\[7\][3]
*173 fifomem_mem\[2\][1]
*174 fifomem_mem\[5\][3]
*175 fifomem_mem\[4\][4]
*176 fifomem_mem\[1\][3]
*177 fifomem_mem\[1\][4]
*178 n_16
*179 fifomem_mem\[12\][3]
*180 fifomem_mem\[1\][7]
*181 fifomem_mem\[9\][1]
*182 fifomem_mem\[13\][0]
*183 fifomem_mem\[12\][7]
*184 fifomem_mem\[14\][7]
*185 fifomem_mem\[7\][7]
*186 fifomem_mem\[13\][3]
*187 fifomem_mem\[2\][7]
*188 fifomem_mem\[11\][4]
*189 fifomem_mem\[8\][0]
*190 fifomem_mem\[6\][4]
*191 fifomem_mem\[11\][0]
*192 fifomem_mem\[6\][1]
*193 fifomem_mem\[14\][0]
*194 rq2_wptr[0]
*195 fifomem_mem\[11\][7]
*196 fifomem_mem\[3\][6]
*197 n_81
*198 fifomem_mem\[4\][0]
*199 fifomem_mem\[6\][7]
*200 fifomem_mem\[0\][7]
*201 fifomem_mem\[0\][5]
*202 fifomem_mem\[0\][0]
*203 fifomem_mem\[11\][6]
*204 fifomem_mem\[1\][6]
*205 n_26
*206 fifomem_mem\[8\][7]
*207 fifomem_mem\[7\][2]
*208 fifomem_mem\[15\][4]
*209 fifomem_mem\[3\][7]
*210 fifomem_mem\[9\][3]
*211 wq2_rptr[1]
*212 fifomem_mem\[3\][4]
*213 fifomem_mem\[7\][4]
*214 fifomem_mem\[2\][4]
*215 fifomem_mem\[3\][3]
*216 fifomem_mem\[12\][6]
*217 fifomem_mem\[8\][1]
*218 fifomem_mem\[2\][2]
*219 fifomem_mem\[1\][5]
*220 fifomem_mem\[7\][1]
*221 fifomem_mem\[3\][0]
*222 fifomem_mem\[2\][5]
*223 fifomem_mem\[2\][0]
*224 fifomem_mem\[8\][6]
*225 fifomem_mem\[10\][7]
*226 fifomem_mem\[5\][1]
*227 fifomem_mem\[7\][6]
*228 fifomem_mem\[10\][6]
*229 fifomem_mem\[10\][2]
*230 fifomem_mem\[15\][1]
*231 wq2_rptr[0]
*232 fifomem_mem\[15\][2]
*233 fifomem_mem\[8\][2]
*234 fifomem_mem\[5\][0]
*235 fifomem_mem\[11\][5]
*236 n_23
*237 n_79
*238 n_27
*239 n_193
*240 rq2_wptr[3]
*241 rq2_wptr[1]
*242 n_3
*243 n_20
*244 wq2_rptr[2]
*245 n_96
*246 wq2_rptr[3]
*247 n_14
*248 rq2_wptr[2]
*249 winc
*250 rdata[6]
*251 rdata[2]
*252 rdata[0]
*253 n_129
*254 n_131
*255 n_130
*256 rdata[7]
*257 wrst_n
*258 rdata[1]
*259 n_133
*260 n_132
*261 n_134
*262 n_128
*263 wdata[1]
*264 wdata[2]
*265 n_77
*266 n_66
*267 n_74
*268 n_191
*269 n_69
*270 rdata[4]
*271 wdata[6]
*272 rdata[3]
*273 n_52
*274 n_139
*275 n_68
*276 n_76
*277 n_100
*278 FE_PHN13_wdata_5
*279 n_127
*280 n_91
*281 n_70
*282 n_141
*283 n_168
*284 n_90
*285 n_32
*286 rrst_n
*287 n_111
*288 n_31
*289 wptr[1]
*290 n_95
*291 n_148
*292 n_115
*293 n_184
*294 n_2
*295 wptr[0]
*296 FE_PHN15_wdata_4
*297 n_182
*298 n_35
*299 n_46
*300 n_60
*301 rptr[1]
*302 rptr[0]
*303 n_144
*304 n_112
*305 n_73
*306 n_39
*307 sync_r2w_wq1_rptr[1]
*308 n_152
*309 n_146
*310 wdata[7]
*311 n_21
*312 n_55
*313 FE_PHN25_wdata_4
*314 FE_PHN19_wdata_4
*315 FE_PHN20_wdata_3
*316 n_51
*317 sync_w2r_rq1_wptr[1]
*318 rdata[5]
*319 rptr[2]
*320 n_36
*321 n_56
*322 FE_PHN27_wdata_3
*323 wptr[2]
*324 FE_PHN28_wdata_3
*325 n_47
*326 n_87
*327 n_42
*328 sync_w2r_rq1_wptr[0]
*329 n_194
*330 sync_w2r_rq1_wptr[2]
*331 FE_PHN17_wdata_3
*332 n_43
*333 FE_PHN24_wdata_3
*334 rinc
*335 n_57
*336 n_140
*337 sync_r2w_wq1_rptr[4]
*338 n_45
*339 n_93
*340 n_50
*341 n_177
*342 n_181
*343 n_40
*344 n_49
*345 n_151
*346 n_48
*347 n_63
*348 sync_r2w_wq1_rptr[0]
*349 n_83
*350 n_171
*351 n_116
*352 n_137
*353 n_183
*354 n_176
*355 FE_PHN26_wdata_4
*356 n_86
*357 n_33
*358 n_53
*359 n_44
*360 n_85
*361 sync_r2w_wq1_rptr[2]
*362 wq2_rptr[4]
*363 rptr[3]
*364 n_89
*365 n_174
*366 n_64
*367 n_0
*368 n_114
*369 n_67
*370 n_179
*371 n_18
*372 FE_PHN14_wdata_3
*373 n_101
*374 sync_r2w_wq1_rptr[3]
*375 n_126
*376 sync_w2r_rq1_wptr[3]
*377 sync_w2r_rq1_wptr[4]
*378 n_37
*379 n_34
*380 n_61
*381 n_62
*382 n_59
*383 FE_PHN22_wdata_3
*384 n_30
*385 n_1
*386 n_142
*387 n_38
*388 wptr[3]
*389 n_41
*390 FE_PHN18_wdata_4
*391 FE_PHN16_wdata_0
*392 FE_PHN21_wdata_4
*393 FE_PHN23_wdata_4
*394 FE_PHC28_wdata_3
*395 FE_PHC27_wdata_3
*396 FE_PHC26_wdata_4
*397 FE_PHC25_wdata_4
*398 FE_PHC24_wdata_3
*399 FE_PHC23_wdata_4
*400 FE_PHC22_wdata_3
*401 FE_PHC21_wdata_4
*402 FE_PHC20_wdata_3
*403 FE_PHC19_wdata_4
*404 FE_PHC18_wdata_4
*405 FE_PHC17_wdata_3
*406 FE_PHC16_wdata_0
*407 FE_PHC15_wdata_4
*408 FE_PHC14_wdata_3
*409 FE_PHC13_wdata_5
*410 FE_PHC12_wdata_0
*411 FE_PHC11_wdata_0
*412 FE_PHC10_wdata_3
*413 FE_PHC9_wdata_4
*414 FE_PHC8_wdata_5
*415 FE_PHC7_wdata_2
*416 FE_PHC6_wdata_7
*417 FE_PHC5_wdata_6
*418 FE_PHC4_wdata_1
*419 FE_PHC3_wrst_n
*420 FE_PHC2_rrst_n
*421 CTS_ccl_BUF_wclk_G0_L1_2
*422 CTS_ccl_BUF_wclk_G0_L1_1
*423 FE_OFC1_n_194
*424 rptr_empty_rempty_reg
*425 g4649__2398
*426 wptr_full_wfull_reg
*427 g4651__5107
*428 g4650__6260
*429 g4655__4319
*430 g4654__8428
*431 g4653__5526
*432 g4652__6783
*433 sync_w2r_rq2_wptr_reg\[3\]
*434 g4660__3680
*435 sync_w2r_rq2_wptr_reg\[2\]
*436 g4666__1617
*437 g4657__2802
*438 sync_w2r_rq1_wptr_reg\[3\]
*439 sync_r2w_wq2_rptr_reg\[3\]
*440 sync_w2r_rq1_wptr_reg\[2\]
*441 sync_r2w_wq1_rptr_reg\[3\]
*442 g4733__1705
*443 wptr_full_wptr_reg\[3\]
*444 sync_r2w_wq2_rptr_reg\[1\]
*445 sync_r2w_wq2_rptr_reg\[2\]
*446 sync_w2r_rq2_wptr_reg\[1\]
*447 g4728__5122
*448 g4734__8246
*449 g4731__7098
*450 g4735__6131
*451 g4729__1881
*452 g4730__5115
*453 g4732__7482
*454 wptr_full_wptr_reg\[2\]
*455 sync_w2r_rq2_wptr_reg\[0\]
*456 sync_w2r_rq1_wptr_reg\[1\]
*457 g4805__6161
*458 sync_r2w_wq1_rptr_reg\[1\]
*459 g4804__9315
*460 rptr_empty_rptr_reg\[3\]
*461 sync_r2w_wq2_rptr_reg\[0\]
*462 g4689__9945
*463 g4803__2883
*464 g4798__2346
*465 g4799__1666
*466 g4800__7410
*467 g4801__6417
*468 g4802__5477
*469 sync_r2w_wq1_rptr_reg\[2\]
*470 sync_w2r_rq1_wptr_reg\[0\]
*471 g4686
*472 fifomem_mem_reg\[6\]\[0\]
*473 wptr_full_wbin_reg\[4\]
*474 fifomem_mem_reg\[6\]\[2\]
*475 fifomem_mem_reg\[6\]\[4\]
*476 fifomem_mem_reg\[6\]\[3\]
*477 fifomem_mem_reg\[6\]\[6\]
*478 fifomem_mem_reg\[6\]\[5\]
*479 fifomem_mem_reg\[6\]\[7\]
*480 fifomem_mem_reg\[6\]\[1\]
*481 wptr_full_wptr_reg\[1\]
*482 g4674
*483 rptr_empty_rptr_reg\[1\]
*484 sync_r2w_wq1_rptr_reg\[0\]
*485 rptr_empty_rptr_reg\[2\]
*486 fifomem_mem_reg\[2\]\[7\]
*487 fifomem_mem_reg\[2\]\[3\]
*488 g4690__2398
*489 fifomem_mem_reg\[2\]\[0\]
*490 fifomem_mem_reg\[2\]\[5\]
*491 fifomem_mem_reg\[2\]\[6\]
*492 fifomem_mem_reg\[2\]\[4\]
*493 fifomem_mem_reg\[2\]\[1\]
*494 fifomem_mem_reg\[2\]\[2\]
*495 wptr_full_wptr_reg\[0\]
*496 g4861__5107
*497 g4862__6260
*498 g4863__4319
*499 g4864__8428
*500 g4865__5526
*501 g4866__6783
*502 g4867__3680
*503 g4868__1617
*504 g4675__2802
*505 fifomem_mem_reg\[0\]\[7\]
*506 fifomem_mem_reg\[15\]\[4\]
*507 fifomem_mem_reg\[0\]\[0\]
*508 fifomem_mem_reg\[4\]\[3\]
*509 fifomem_mem_reg\[4\]\[2\]
*510 fifomem_mem_reg\[7\]\[1\]
*511 fifomem_mem_reg\[7\]\[2\]
*512 fifomem_mem_reg\[7\]\[3\]
*513 fifomem_mem_reg\[7\]\[6\]
*514 fifomem_mem_reg\[7\]\[7\]
*515 fifomem_mem_reg\[7\]\[0\]
*516 fifomem_mem_reg\[7\]\[5\]
*517 fifomem_mem_reg\[7\]\[4\]
*518 fifomem_mem_reg\[15\]\[2\]
*519 fifomem_mem_reg\[15\]\[3\]
*520 fifomem_mem_reg\[15\]\[7\]
*521 fifomem_mem_reg\[15\]\[0\]
*522 fifomem_mem_reg\[15\]\[1\]
*523 fifomem_mem_reg\[15\]\[5\]
*524 fifomem_mem_reg\[15\]\[6\]
*525 fifomem_mem_reg\[5\]\[7\]
*526 fifomem_mem_reg\[4\]\[0\]
*527 g4681__1705
*528 fifomem_mem_reg\[4\]\[4\]
*529 fifomem_mem_reg\[4\]\[7\]
*530 fifomem_mem_reg\[5\]\[0\]
*531 fifomem_mem_reg\[5\]\[1\]
*532 fifomem_mem_reg\[5\]\[2\]
*533 fifomem_mem_reg\[5\]\[3\]
*534 fifomem_mem_reg\[5\]\[4\]
*535 fifomem_mem_reg\[5\]\[5\]
*536 fifomem_mem_reg\[4\]\[6\]
*537 fifomem_mem_reg\[5\]\[6\]
*538 fifomem_mem_reg\[0\]\[2\]
*539 fifomem_mem_reg\[0\]\[3\]
*540 fifomem_mem_reg\[0\]\[6\]
*541 fifomem_mem_reg\[1\]\[0\]
*542 fifomem_mem_reg\[1\]\[1\]
*543 fifomem_mem_reg\[0\]\[1\]
*544 fifomem_mem_reg\[0\]\[5\]
*545 fifomem_mem_reg\[1\]\[2\]
*546 fifomem_mem_reg\[1\]\[4\]
*547 fifomem_mem_reg\[1\]\[5\]
*548 fifomem_mem_reg\[1\]\[6\]
*549 fifomem_mem_reg\[1\]\[3\]
*550 fifomem_mem_reg\[0\]\[4\]
*551 fifomem_mem_reg\[3\]\[0\]
*552 fifomem_mem_reg\[3\]\[3\]
*553 fifomem_mem_reg\[3\]\[1\]
*554 fifomem_mem_reg\[3\]\[4\]
*555 fifomem_mem_reg\[3\]\[6\]
*556 fifomem_mem_reg\[3\]\[2\]
*557 fifomem_mem_reg\[3\]\[7\]
*558 fifomem_mem_reg\[3\]\[5\]
*559 fifomem_mem_reg\[1\]\[7\]
*560 fifomem_mem_reg\[4\]\[5\]
*561 fifomem_mem_reg\[4\]\[1\]
*562 rptr_empty_rptr_reg\[0\]
*563 g4764
*564 g4837
*565 g4727
*566 fifomem_mem_reg\[14\]\[5\]
*567 fifomem_mem_reg\[14\]\[0\]
*568 rptr_empty_rbin_reg\[4\]
*569 g4796
*570 fifomem_mem_reg\[14\]\[3\]
*571 fifomem_mem_reg\[14\]\[4\]
*572 fifomem_mem_reg\[14\]\[7\]
*573 fifomem_mem_reg\[14\]\[6\]
*574 fifomem_mem_reg\[14\]\[1\]
*575 fifomem_mem_reg\[14\]\[2\]
*576 g4859
*577 fifomem_mem_reg\[13\]\[1\]
*578 fifomem_mem_reg\[10\]\[7\]
*579 fifomem_mem_reg\[13\]\[6\]
*580 fifomem_mem_reg\[10\]\[3\]
*581 fifomem_mem_reg\[9\]\[5\]
*582 fifomem_mem_reg\[9\]\[7\]
*583 fifomem_mem_reg\[13\]\[0\]
*584 fifomem_mem_reg\[9\]\[4\]
*585 fifomem_mem_reg\[9\]\[2\]
*586 fifomem_mem_reg\[11\]\[4\]
*587 fifomem_mem_reg\[9\]\[1\]
*588 fifomem_mem_reg\[8\]\[3\]
*589 fifomem_mem_reg\[9\]\[3\]
*590 fifomem_mem_reg\[12\]\[4\]
*591 fifomem_mem_reg\[11\]\[0\]
*592 fifomem_mem_reg\[9\]\[0\]
*593 fifomem_mem_reg\[8\]\[1\]
*594 fifomem_mem_reg\[8\]\[2\]
*595 fifomem_mem_reg\[8\]\[4\]
*596 fifomem_mem_reg\[8\]\[5\]
*597 fifomem_mem_reg\[8\]\[6\]
*598 g4762__8246
*599 g4827__7098
*600 g4843__6131
*601 g4844__1881
*602 g4874__5115
*603 fifomem_mem_reg\[8\]\[7\]
*604 fifomem_mem_reg\[10\]\[0\]
*605 fifomem_mem_reg\[10\]\[1\]
*606 fifomem_mem_reg\[10\]\[2\]
*607 fifomem_mem_reg\[10\]\[4\]
*608 fifomem_mem_reg\[10\]\[5\]
*609 fifomem_mem_reg\[10\]\[6\]
*610 fifomem_mem_reg\[12\]\[0\]
*611 fifomem_mem_reg\[12\]\[1\]
*612 fifomem_mem_reg\[12\]\[2\]
*613 fifomem_mem_reg\[13\]\[3\]
*614 fifomem_mem_reg\[13\]\[4\]
*615 fifomem_mem_reg\[13\]\[7\]
*616 fifomem_mem_reg\[9\]\[6\]
*617 fifomem_mem_reg\[12\]\[3\]
*618 fifomem_mem_reg\[12\]\[5\]
*619 fifomem_mem_reg\[12\]\[6\]
*620 fifomem_mem_reg\[12\]\[7\]
*621 fifomem_mem_reg\[13\]\[2\]
*622 fifomem_mem_reg\[11\]\[1\]
*623 fifomem_mem_reg\[11\]\[2\]
*624 fifomem_mem_reg\[11\]\[3\]
*625 fifomem_mem_reg\[11\]\[5\]
*626 fifomem_mem_reg\[11\]\[6\]
*627 fifomem_mem_reg\[11\]\[7\]
*628 fifomem_mem_reg\[13\]\[5\]
*629 fifomem_mem_reg\[8\]\[0\]
*630 g4836
*631 g4907__7482
*632 g4869__4733
*633 g4763__6161
*634 g4872__9315
*635 g4897__9945
*636 g4906__2883
*637 g4895__2346
*638 g4896__1666
*639 g4893__7410
*640 g4898__6417
*641 g4905__5477
*642 g4829
*643 g4842__2398
*644 g4855__6260
*645 g4882
*646 g4857__4319
*647 g4856__8428
*648 g4873__5526
*649 g4858__6783
*650 g4875__3680
*651 g4914__1617
*652 g4909__2802
*653 g4910__1705
*654 g4911__5122
*655 g4912__8246
*656 g4913__7098
*657 g4908__6131
*658 g4890
*659 g4915__1881
*660 g4916__7482
*661 g4871__4733
*662 g4870__6161
*663 g4889__9315
*664 g4928__9945
*665 g4918__2883
*666 g4919__2346
*667 g4920__1666
*668 g4921__7410
*669 g4922__6417
*670 g4923__5477
*671 g4924__2398
*672 g4925__5107
*673 g4926__6260
*674 g4927__4319
*675 g4938__8428
*676 g4929__5526
*677 g4930__6783
*678 g4931__3680
*679 g4937__1617
*680 g4936__2802
*681 g4935__1705
*682 g4884__5122
*683 g4932__8246
*684 g4933__7098
*685 g4934__6131
*686 g4883
*687 g4939__1881
*688 g4940__5115
*689 g4941__7482
*690 g4942__4733
*691 g4943__6161
*692 g4944__9315
*693 g4945__9945
*694 g4946__2883
*695 g4947__2346
*696 g4948__1666
*697 g4949__7410
*698 g4950__6417
*699 g4951__5477
*700 g4952__2398
*701 g4877__5107
*702 g4876__6260
*703 wptr_full_wbin_reg\[0\]
*704 g4881__4319
*705 g4887__8428
*706 g4888__5526
*707 g4879__6783
*708 g4880__3680
*709 g4892
*710 g4886__1617
*711 g4894__2802
*712 g4956__1705
*713 g4954__5122
*714 g4955__8246
*715 g4901__7098
*716 g4900__6131
*717 g4899__1881
*718 g4902__5115
*719 g4957__7482
*720 g4966__4733
*721 g4965__6161
*722 g4964__9315
*723 g4971__9945
*724 g4961__2883
*725 g4978__2346
*726 g4973__1666
*727 g4974__7410
*728 g4975__6417
*729 g4976__5477
*730 g4977__2398
*731 g4972__5107
*732 sync_r2w_wq2_rptr_reg\[4\]
*733 sync_w2r_rq2_wptr_reg\[4\]
*734 g4962__6260
*735 g4963__4319
*736 g4960__8428
*737 g4968__5526
*738 g4969__6783
*739 g4970__3680
*740 g4967__1617
*741 g4986__2802
*742 g4987__1705
*743 g4988__5122
*744 g4989__8246
*745 g4992__7098
*746 g4991__6131
*747 sync_w2r_rq1_wptr_reg\[4\]
*748 sync_r2w_wq1_rptr_reg\[4\]
*749 g4981__1881
*750 g4985__5115
*751 g4982__7482
*752 g4983__4733
*753 g4984__6161
*754 g4990__9315
*755 g2
*756 g5168
*757 wptr_full_wbin_reg\[1\]
*758 wptr_full_wbin_reg\[2\]
*759 wptr_full_wbin_reg\[3\]
*760 rptr_empty_rbin_reg\[0\]
*761 rptr_empty_rbin_reg\[2\]
*762 rptr_empty_rbin_reg\[1\]
*763 rptr_empty_rbin_reg\[3\]
*764 g5183
*765 g5184


*PORTS

*256 O *C 62.6 13.4
*250 O *C 62.6 20
*318 O *C 62.6 26.6
*270 O *C 62.6 33.2
*272 O *C 62.6 39.8
*251 O *C 62.6 46.4
*258 O *C 62.6 53
*252 O *C 62.6 59.4
*100 O *C 62.6 0.2
*96 O *C 62.6 6.8
*310 I *C 0 54.8
*271 I *C 0 50.2
*98 I *C 0 45.6
*48 I *C 0 41
*49 I *C 0 36.6
*264 I *C 0 32
*263 I *C 0 27.4
*78 I *C 0 22.8
*249 I *C 0 4.6
*97 I *C 0 18.4
*257 I *C 0 0.2
*334 I *C 0 9.2
*3 I *C 0 59.4
*286 I *C 0 13.8


*D_NET *1 0.0433378

*CONN
*I *759:CK I *C 34.9 14.4 *L 0.000662 *D DFRM2RA
*I *758:CK I *C 39.7 14.4 *L 0.000662 *D DFRM2RA
*I *757:CK I *C 45.1 12.8 *L 0.000662 *D DFRM2RA
*I *748:CK I *C 25.9 16.4 *L 0.000704 *D DFQRM2RA
*I *732:CK I *C 26.1 14.4 *L 0.000704 *D DFQRM2RA
*I *703:CK I *C 45.7 7.2 *L 0.000704 *D DFQRM2RA
*I *629:CK I *C 54.3 28.6 *L 0.000744 *D SDFQM1RA
*I *627:CK I *C 43.7 28.6 *L 0.000679 *D SDFQM2RA
*I *624:CK I *C 49.3 35.8 *L 0.000679 *D SDFQM2RA
*I *622:CK I *C 47.5 31 *L 0.000679 *D SDFQM2RA
*I *620:CK I *C 44.9 21.4 *L 0.000744 *D SDFQM1RA
*I *616:CK I *C 44.1 35.8 *L 0.000679 *D SDFQM2RA
*I *613:CK I *C 53.5 52.6 *L 0.000679 *D SDFQM2RA
*I *611:CK I *C 41.7 25 *L 0.000744 *D SDFQM1RA
*I *609:CK I *C 43.9 38.2 *L 0.000744 *D SDFQM1RA
*I *608:CK I *C 53.1 14.2 *L 0.000744 *D SDFQM1RA
*I *607:CK I *C 54.3 45.4 *L 0.000744 *D SDFQM1RA
*I *606:CK I *C 45.9 45.4 *L 0.000744 *D SDFQM1RA
*I *605:CK I *C 50.3 32.2 *L 0.000744 *D SDFQM1RA
*I *604:CK I *C 54.3 35.8 *L 0.000744 *D SDFQM1RA
*I *603:CK I *C 44.7 25 *L 0.000744 *D SDFQM1RA
*I *597:CK I *C 43.9 39.4 *L 0.000744 *D SDFQM1RA
*I *596:CK I *C 50.5 23.8 *L 0.000744 *D SDFQM1RA
*I *594:CK I *C 45.1 41.8 *L 0.000744 *D SDFQM1RA
*I *593:CK I *C 54.5 34.6 *L 0.000744 *D SDFQM1RA
*I *592:CK I *C 49.5 34.6 *L 0.000679 *D SDFQM2RA
*I *591:CK I *C 28.5 23.8 *L 0.000679 *D SDFQM2RA
*I *589:CK I *C 41.1 41.8 *L 0.000679 *D SDFQM2RA
*I *588:CK I *C 41.9 43 *L 0.000744 *D SDFQM1RA
*I *587:CK I *C 44.7 27.4 *L 0.000679 *D SDFQM2RA
*I *586:CK I *C 47.9 43 *L 0.000679 *D SDFQM2RA
*I *585:CK I *C 46.9 39.4 *L 0.000679 *D SDFQM2RA
*I *584:CK I *C 49.3 38.2 *L 0.000679 *D SDFQM2RA
*I *582:CK I *C 43.1 34.6 *L 0.000679 *D SDFQM2RA
*I *581:CK I *C 51.5 17.8 *L 0.000679 *D SDFQM2RA
*I *580:CK I *C 54.3 38.2 *L 0.000744 *D SDFQM1RA
*I *578:CK I *C 43.7 32.2 *L 0.000744 *D SDFQM1RA
*I *577:CK I *C 32.3 31 *L 0.000679 *D SDFQM2RA
*I *574:CK I *C 41.5 27.4 *L 0.000679 *D SDFQM2RA
*I *572:CK I *C 39.7 32.2 *L 0.000679 *D SDFQM2RA
*I *571:CK I *C 53.9 43 *L 0.000679 *D SDFQM2RA
*I *570:CK I *C 53.9 53.8 *L 0.000679 *D SDFQM2RA
*I *567:CK I *C 53.5 23.8 *L 0.000679 *D SDFQM2RA
*I *566:CK I *C 54.3 20.2 *L 0.000679 *D SDFQM2RA
*I *558:CK I *C 26.1 17.8 *L 0.000744 *D SDFQM1RA
*I *553:CK I *C 36.7 23.8 *L 0.000744 *D SDFQM1RA
*I *551:CK I *C 29.5 20.2 *L 0.000744 *D SDFQM1RA
*I *548:CK I *C 37.1 38.2 *L 0.000744 *D SDFQM1RA
*I *543:CK I *C 27.3 31 *L 0.000679 *D SDFQM2RA
*I *542:CK I *C 36.5 25 *L 0.000744 *D SDFQM1RA
*I *531:CK I *C 36.9 31 *L 0.000744 *D SDFQM1RA
*I *523:CK I *C 54.1 16.6 *L 0.000744 *D SDFQM1RA
*I *522:CK I *C 54.5 31 *L 0.000744 *D SDFQM1RA
*I *521:CK I *C 54.1 21.4 *L 0.000744 *D SDFQM1RA
*I *520:CK I *C 38.7 34.6 *L 0.000744 *D SDFQM1RA
*I *519:CK I *C 52.9 49 *L 0.000744 *D SDFQM1RA
*I *506:CK I *C 54.3 41.8 *L 0.000744 *D SDFQM1RA
*I *495:CK I *C 28.5 5.6 *L 0.000704 *D DFQRM2RA
*I *493:CK I *C 34.5 27.4 *L 0.000744 *D SDFQM1RA
*I *491:CK I *C 34.9 35.8 *L 0.000744 *D SDFQM1RA
*I *489:CK I *C 25.5 20.2 *L 0.000744 *D SDFQM1RA
*I *484:CK I *C 29.5 7.2 *L 0.000704 *D DFQRM2RA
*I *481:CK I *C 28.3 7.2 *L 0.000602 *D DFQRM1RA
*I *480:CK I *C 28.1 25 *L 0.000679 *D SDFQM2RA
*I *473:CK I *C 36.1 12.8 *L 0.000704 *D DFQRM2RA
*I *472:CK I *C 29.5 17.8 *L 0.000679 *D SDFQM2RA
*I *469:CK I *C 25.5 12.8 *L 0.000704 *D DFQRM2RA
*I *461:CK I *C 34.5 5.6 *L 0.000704 *D DFQRM2RA
*I *458:CK I *C 29.5 5.6 *L 0.000704 *D DFQRM2RA
*I *454:CK I *C 9.1 10.8 *L 0.000704 *D DFQRM2RA
*I *445:CK I *C 30.5 10.8 *L 0.000704 *D DFQRM2RA
*I *444:CK I *C 39.7 5.6 *L 0.000704 *D DFQRM2RA
*I *443:CK I *C 30.3 10.8 *L 0.000704 *D DFQRM2RA
*I *441:CK I *C 26.3 9.2 *L 0.000704 *D DFQRM2RA
*I *439:CK I *C 31.7 9.2 *L 0.000704 *D DFQRM2RA
*I *426:CK I *C 44.7 5.6 *L 0.000704 *D DFQRM2RA
*I *422:Z O *C 36.7 29 *L 0 *D CKBUFM40R

*CAP
1 *593:CK 7.37906e-05
2 *522:CK 8.48174e-05
3 *607:CK 8.60095e-05
4 *506:CK 8.87513e-05
5 *580:CK 9.20296e-05
6 *604:CK 0.000105679
7 *629:CK 0.000105679
8 *566:CK 0.000114143
9 *521:CK 9.20892e-05
10 *523:CK 0.000138044
11 *570:CK 0.000145793
12 *571:CK 8.53538e-05
13 *613:CK 7.85589e-05
14 *567:CK 6.44922e-05
15 *608:CK 0.000498593
16 *519:CK 0.000126004
17 *581:CK 0.000192225
18 *596:CK 0.000239551
19 *605:CK 6.7234e-05
20 *592:CK 7.86185e-05
21 *584:CK 0.000183403
22 *624:CK 9.13143e-05
23 *586:CK 0.000171483
24 *622:CK 5.48959e-05
25 *585:CK 0.000141621
26 *606:CK 0.000214815
27 *703:CK 9.73344e-05
28 *757:CK 9.16123e-05
29 *594:CK 0.00010699
30 *620:CK 0.000280023
31 *603:CK 9.37581e-05
32 *426:CK 6.27637e-05
33 *587:CK 6.06775e-05
34 *616:CK 0.000146329
35 *609:CK 0.000159085
36 *597:CK 0.000114083
37 *578:CK 9.72748e-05
38 *627:CK 0.000150681
39 *582:CK 0.000175953
40 *588:CK 5.81145e-05
41 *611:CK 0.000205815
42 *574:CK 4.95315e-05
43 *589:CK 0.000225663
44 *758:CK 6.47306e-05
45 *444:CK 0.000217974
46 *572:CK 0.000151932
47 *520:CK 0.000138223
48 *548:CK 0.000195384
49 *531:CK 6.24061e-05
50 *422:Z 0.000124097
51 *553:CK 9.36985e-05
52 *542:CK 0.000116229
53 *473:CK 0.000167727
54 *759:CK 0.00011611
55 *491:CK 0.000214696
56 *493:CK 6.07371e-05
57 *461:CK 0.000262201
58 *577:CK 0.000212967
59 *439:CK 0.00010848
60 *445:CK 6.59227e-05
61 *443:CK 4.65512e-05
62 *551:CK 6.22869e-05
63 *484:CK 4.88758e-05
64 *458:CK 7.05123e-05
65 *472:CK 9.49502e-05
66 *591:CK 8.08835e-05
67 *495:CK 0.000160754
68 *481:CK 6.73532e-05
69 *480:CK 0.000144243
70 *543:CK 0.000228167
71 *441:CK 0.000163794
72 *732:CK 7.49826e-05
73 *558:CK 8.7738e-05
74 *748:CK 9.01222e-05
75 *469:CK 0.000135362
76 *489:CK 9.60827e-05
77 *454:CK 5.34654e-05
78 *1:77 0.000308752
79 *1:78 0.000275135
80 *1:79 0.000292599
81 *1:80 0.000234008
82 *1:81 0.000207424
83 *1:82 0.000352025
84 *1:83 0.000218034
85 *1:84 0.000422597
86 *1:85 0.000208914
87 *1:86 0.00025183
88 *1:87 0.000249267
89 *1:88 0.000212848
90 *1:89 0.00039053
91 *1:90 0.000447631
92 *1:91 0.000371039
93 *1:92 0.00052321
94 *1:93 0.000128567
95 *1:94 0.000148475
96 *1:95 0.000208497
97 *1:96 0.000279725
98 *1:97 0.000346005
99 *1:98 0.00033319
100 *1:99 0.000243127
101 *1:100 0.000319779
102 *1:101 0.000331938
103 *1:102 0.00030601
104 *1:103 0.000264347
105 *1:104 0.000706315
106 *1:105 0.00018543
107 *1:106 0.000172675
108 *1:107 0.000167489
109 *1:108 0.000163496
110 *1:109 0.000266492
111 *1:110 0.00017786
112 *1:111 0.000194013
113 *1:112 0.000455916
114 *1:113 0.000349462
115 *1:114 0.000466049
116 *1:115 0.000275493
117 *1:116 0.000189304
118 *1:117 0.000279784
119 *1:118 0.000119507
120 *1:119 0.000174046
121 *1:120 0.000199974
122 *1:121 0.000293851
123 *1:122 0.000268102
124 *1:123 0.000229895
125 *1:124 0.000341773
126 *1:125 0.000380337
127 *1:126 0.000398517
128 *1:127 0.000558257
129 *1:128 0.000321925
130 *1:129 0.000303566
131 *1:130 0.000287473
132 *1:131 0.000159562
133 *1:132 0.000359595
134 *1:133 0.000143468
135 *1:134 0.000293493
136 *1:135 0.000409007
137 *1:136 0.000298381
138 *1:137 0.00036335
139 *1:138 0.000453591
140 *1:139 0.000266969
141 *1:140 0.000244915
142 *1:141 0.000226498
143 *1:142 0.000127435
144 *1:143 0.000680149
145 *1:144 0.000301421
146 *1:145 0.000130177
147 *1:146 0.000225186
148 *1:147 0.000437617
149 *1:148 0.000744522
150 *1:149 0.000236094
151 *1:150 0.000148714
152 *1:151 0.000186265
153 *1:152 0.000410676
154 *1:153 0.000296652
155 *1:154 0.000202119
156 *1:155 0.000151157
157 *1:156 0.000389397
158 *1:157 0.000959992
159 *1:158 0.000164151
160 *1:159 0.00028038
161 *1:160 0.000224292
162 *1:161 0.000283539
163 *1:162 0.000237644
164 *1:163 0.000312746
165 *1:164 0.000296712
166 *1:165 0.00112611
167 *1:166 0.000985503
168 *1:164 *493:SE 0.000267744
169 *480:CK *41:11 0.000267506
170 *461:CK *759:RB 0.000635982
171 *589:CK *674:A1 0.000289321
172 *606:CK *16:18 0.000605822
173 *581:CK *36:16 0.000250101
174 *519:CK *695:B1 0.00088191
175 *567:CK *592:D 0.000530958
176 *570:CK *570:D 0.000468731
177 *607:CK *607:SD 0.000369906
178 *593:CK *593:SD 0.000539541

*RES
1 *454:CK *1:166 1.66333
2 *1:166 *1:165 13.118
3 *489:CK *1:164 2.13861
4 *469:CK *1:163 2.99168
5 *748:CK *1:162 2.58505
6 *558:CK *1:161 2.50649
7 *732:CK *1:160 2.50053
8 *1:165 *1:159 0.759959
9 *1:159 *1:163 1.24419
10 *1:163 *1:160 1.35493
11 *1:160 *1:162 1.05298
12 *1:162 *1:161 1.20127
13 *1:161 *1:164 2.10965
14 *1:164 *1:158 1.36566
15 *441:CK *1:159 3.70789
16 *543:CK *1:157 3.76785
17 *480:CK *1:156 3.33214
18 *481:CK *1:155 1.6979
19 *1:154 *1:153 2.28262
20 *1:158 *1:152 0.783801
21 *1:153 *1:158 0.762463
22 *1:156 *1:153 2.68435
23 *495:CK *1:151 3.68154
24 *591:CK *1:156 2.74777
25 *1:155 *1:150 0.652075
26 *1:151 *1:155 0.764847
27 *1:150 *1:149 0.939846
28 *1:152 *1:148 5.76544
29 *472:CK *1:154 2.57885
30 *458:CK *1:147 1.83332
31 *484:CK *1:150 1.53708
32 *551:CK *1:152 1.66821
33 *1:147 *1:149 1.96373
34 *1:149 *1:146 1.20127
35 *1:145 *1:146 0.762463
36 *1:146 *1:144 1.96135
37 *1:144 *1:165 2.53606
38 *1:157 *1:143 7.31373
39 *443:CK *1:142 1.72341
40 *1:142 *1:144 0.163198
41 *445:CK *1:142 2.03443
42 *439:CK *1:145 2.90883
43 *577:CK *1:157 3.47555
44 *1:143 *1:141 1.21093
45 *461:CK *1:147 4.96984
46 *493:CK *1:143 1.66821
47 *491:CK *1:140 3.34847
48 *759:CK *1:139 2.5779
49 *473:CK *1:138 3.59249
50 *1:139 *1:138 0.759959
51 *1:138 *1:148 4.01914
52 *1:148 *1:137 2.53606
53 *1:137 *1:136 1.05298
54 *1:136 *1:141 2.39539
55 *1:141 *1:135 0.311494
56 *542:CK *1:136 2.6176
57 *553:CK *1:137 2.62368
58 *1:135 *1:134 2.12705
59 *1:134 *422:Z 2.74289
60 *1:133 *1:134 1.83535
61 *531:CK *1:133 1.67203
62 *1:132 *1:133 0.015378
63 *1:131 *1:130 0.759959
64 *1:130 *1:132 3.31843
65 *1:140 *1:129 0.782371
66 *1:129 *1:130 1.05298
67 *548:CK *1:129 4.08709
68 *520:CK *1:131 2.72083
69 *572:CK *1:128 3.65138
70 *1:127 *1:139 2.39313
71 *1:128 *1:132 2.62201
72 *444:CK *1:126 5.36764
73 *758:CK *1:127 1.67668
74 *589:CK *1:125 4.74179
75 *574:CK *1:124 1.76919
76 *1:124 *1:135 3.39472
77 *611:CK *1:123 3.99208
78 *1:122 *1:124 0.015378
79 *1:123 *1:122 0.762463
80 *588:CK *1:125 1.69432
81 *1:125 *1:121 2.40171
82 *582:CK *1:120 2.96581
83 *627:CK *1:119 2.53403
84 *578:CK *1:118 2.67565
85 *597:CK *1:117 2.28131
86 *609:CK *1:116 2.54238
87 *616:CK *1:115 2.96354
88 *1:126 *1:114 2.28107
89 *1:113 *1:122 2.5177
90 *587:CK *1:113 1.85943
91 *426:CK *1:126 1.66428
92 *603:CK *1:112 2.52628
93 *1:112 *1:111 1.34957
94 *1:111 *1:113 0.942945
95 *1:119 *1:110 0.759959
96 *1:110 *1:111 1.05298
97 *1:109 *1:110 1.49786
98 *1:118 *1:108 0.779986
99 *1:108 *1:109 0.904679
100 *1:120 *1:107 0.762463
101 *1:107 *1:108 1.49786
102 *1:115 *1:107 0.904679
103 *1:116 *1:106 0.779986
104 *1:106 *1:115 1.34957
105 *1:117 *1:105 0.759959
106 *1:105 *1:106 1.05298
107 *620:CK *1:112 5.26655
108 *1:114 *1:104 3.87084
109 *1:104 *1:127 5.7615
110 *1:103 *1:105 1.80316
111 *1:121 *1:102 0.764847
112 *1:102 *1:103 1.03068
113 *594:CK *1:103 2.82359
114 *757:CK *1:104 2.62856
115 *703:CK *1:114 2.7324
116 *606:CK *1:102 4.24886
117 *585:CK *1:117 3.425
118 *1:101 *1:109 2.62201
119 *622:CK *1:101 1.72091
120 *586:CK *1:121 3.77548
121 *1:100 *1:101 2.91193
122 *1:99 *1:100 1.49786
123 *1:98 *1:99 0.904679
124 *624:CK *1:98 2.6685
125 *584:CK *1:98 4.01807
126 *592:CK *1:99 2.58315
127 *1:97 *1:100 1.40321
128 *605:CK *1:97 1.67811
129 *596:CK *1:96 3.54409
130 *581:CK *1:95 3.4852
131 *519:CK *1:94 2.57254
132 *1:96 *1:93 0.169039
133 *1:92 *1:96 0.764847
134 *608:CK *1:92 9.36341
135 *1:93 *1:91 1.24085
136 *567:CK *1:93 1.7662
137 *613:CK *1:90 2.60091
138 *1:90 *1:89 4.38237
139 *571:CK *1:88 2.59674
140 *570:CK *1:90 3.29387
141 *1:95 *1:87 0.759959
142 *1:87 *1:86 1.64628
143 *1:86 *1:85 0.904679
144 *1:85 *1:91 1.3051
145 *1:91 *1:84 4.16124
146 *523:CK *1:87 3.53873
147 *521:CK *1:85 2.64084
148 *1:84 *1:83 1.34957
149 *1:83 *1:82 1.05298
150 *1:82 *1:97 3.78907
151 *1:81 *1:82 1.34957
152 *1:80 *1:81 1.05298
153 *1:79 *1:80 1.34957
154 *1:78 *1:79 2.53606
155 *1:88 *1:78 0.904679
156 *1:77 *1:88 1.49786
157 *1:94 *1:89 0.759959
158 *1:89 *1:77 2.53606
159 *566:CK *1:86 2.666
160 *629:CK *1:84 2.65324
161 *604:CK *1:80 2.65324
162 *580:CK *1:79 2.63715
163 *506:CK *1:78 2.64788
164 *607:CK *1:77 2.64847
165 *522:CK *1:83 2.51126
166 *593:CK *1:81 2.5059
*END

*D_NET *2 0.0426418

*CONN
*I *628:CK I *C 11.1 35.8 *L 0.000679 *D SDFQM2RA
*I *626:CK I *C 40.5 45.4 *L 0.000679 *D SDFQM2RA
*I *625:CK I *C 30.5 32.2 *L 0.000679 *D SDFQM2RA
*I *623:CK I *C 37.1 45.4 *L 0.000679 *D SDFQM2RA
*I *621:CK I *C 46.3 52.6 *L 0.000679 *D SDFQM2RA
*I *619:CK I *C 41.1 49 *L 0.000744 *D SDFQM1RA
*I *618:CK I *C 6.3 38.2 *L 0.000744 *D SDFQM1RA
*I *617:CK I *C 6.1 46.6 *L 0.000744 *D SDFQM1RA
*I *615:CK I *C 11.1 34.6 *L 0.000679 *D SDFQM2RA
*I *614:CK I *C 6.3 53.8 *L 0.000679 *D SDFQM2RA
*I *612:CK I *C 46.9 49 *L 0.000744 *D SDFQM1RA
*I *610:CK I *C 6.1 35.8 *L 0.000744 *D SDFQM1RA
*I *595:CK I *C 36.5 43 *L 0.000744 *D SDFQM1RA
*I *590:CK I *C 28.9 49 *L 0.000744 *D SDFQM1RA
*I *583:CK I *C 6.5 32.2 *L 0.000679 *D SDFQM2RA
*I *579:CK I *C 43.9 53.8 *L 0.000679 *D SDFQM2RA
*I *575:CK I *C 48.5 53.8 *L 0.000679 *D SDFQM2RA
*I *573:CK I *C 37.5 53.8 *L 0.000679 *D SDFQM2RA
*I *561:CK I *C 22.5 25 *L 0.000679 *D SDFQM2RA
*I *560:CK I *C 6.1 34.6 *L 0.000679 *D SDFQM2RA
*I *559:CK I *C 11.3 39.4 *L 0.000744 *D SDFQM1RA
*I *557:CK I *C 30.1 34.6 *L 0.000744 *D SDFQM1RA
*I *556:CK I *C 31.1 39.4 *L 0.000744 *D SDFQM1RA
*I *555:CK I *C 29.1 35.8 *L 0.000744 *D SDFQM1RA
*I *554:CK I *C 30.1 45.4 *L 0.000744 *D SDFQM1RA
*I *552:CK I *C 25.9 43 *L 0.000744 *D SDFQM1RA
*I *550:CK I *C 18.5 53.8 *L 0.000679 *D SDFQM2RA
*I *549:CK I *C 36.9 39.4 *L 0.000744 *D SDFQM1RA
*I *547:CK I *C 11.7 32.2 *L 0.000744 *D SDFQM1RA
*I *546:CK I *C 18.5 43 *L 0.000744 *D SDFQM1RA
*I *545:CK I *C 8.9 43 *L 0.000744 *D SDFQM1RA
*I *544:CK I *C 18.3 31 *L 0.000679 *D SDFQM2RA
*I *541:CK I *C 10.9 25 *L 0.000744 *D SDFQM1RA
*I *540:CK I *C 29.9 53.8 *L 0.000679 *D SDFQM2RA